.SUBCKT OPAMP 1 2 3
E_1 3 0 1 2 _inf
.ENDS
