.SUBCKT OPAMP 1 2 3 4
E1 3 4 1 2 _inf
.ENDS
