.SUBCKT OTRA 1 2 3 4
F1 3 4 1 2 _inf
.ENDS
